  Page 1                                    Sat May 18 23:02:19 2019

  ******************************************************************
  *                           E P A N E T                          *
  *                   Hydraulic and Water Quality                  *
  *                   Analysis for Pipe Networks                   *
  *                         Version 2.1                            *
  ******************************************************************
  
  Analysis begun Sat May 18 23:02:19 2019

  Analysis ended Sat May 18 23:02:19 2019
