  Page 1                                    Wed May 15 17:10:06 2019

  ******************************************************************
  *                           E P A N E T                          *
  *                   Hydraulic and Water Quality                  *
  *                   Analysis for Pipe Networks                   *
  *                         Version 2.1                            *
  ******************************************************************
  
  Analysis begun Wed May 15 17:10:06 2019

  Analysis ended Wed May 15 17:10:06 2019
