  Page 1                                    Wed May  8 00:02:49 2019

  ******************************************************************
  *                           E P A N E T                          *
  *                   Hydraulic and Water Quality                  *
  *                   Analysis for Pipe Networks                   *
  *                         Version 2.1                            *
  ******************************************************************
  
  Analysis begun Wed May  8 00:02:49 2019

   
  Hydraulic Status:
  -----------------------------------------------------------------------
     0:00:00: Balanced after 9 trials
     0:00:00: Reservoir R-3 is emptying
     0:00:00: Reservoir R-8 is emptying
     0:00:00: Reservoir R-10 is emptying
   
  Analysis ended Wed May  8 00:02:49 2019
