  Page 1                                    Sun May 19 20:07:33 2019

  ******************************************************************
  *                           E P A N E T                          *
  *                   Hydraulic and Water Quality                  *
  *                   Analysis for Pipe Networks                   *
  *                         Version 2.1                            *
  ******************************************************************
  
  Analysis begun Sun May 19 20:07:33 2019

  Analysis ended Sun May 19 20:07:33 2019
