  Page 1                                    Thu May  9 18:20:59 2019

  ******************************************************************
  *                           E P A N E T                          *
  *                   Hydraulic and Water Quality                  *
  *                   Analysis for Pipe Networks                   *
  *                         Version 2.1                            *
  ******************************************************************
  
  Analysis begun Thu May  9 18:20:59 2019

  Analysis ended Thu May  9 18:20:59 2019
