  Page 1                                    Wed May  8 12:21:22 2019

  ******************************************************************
  *                           E P A N E T                          *
  *                   Hydraulic and Water Quality                  *
  *                   Analysis for Pipe Networks                   *
  *                         Version 2.1                            *
  ******************************************************************
  
  Analysis begun Wed May  8 12:21:22 2019

  Analysis ended Wed May  8 12:21:22 2019
