  Page 1                                    Mon Oct 29 21:07:25 2018

  ******************************************************************
  *                           E P A N E T                          *
  *                   Hydraulic and Water Quality                  *
  *                   Analysis for Pipe Networks                   *
  *                         Version 2.1                            *
  ******************************************************************
  
   
      Input Data File ................... temp.inp
      Number of Junctions................ 2
      Number of Reservoirs............... 1
      Number of Tanks ................... 0
      Number of Pipes ................... 2
      Number of Pumps ................... 0
      Number of Valves .................. 0
      Headloss Formula .................. Hazen-Williams
      Hydraulic Timestep ................ 15.00 min
      Hydraulic Accuracy ................ 0.001000
      Status Check Frequency ............ 2
      Maximum Trials Checked ............ 10
      Damping Limit Threshold ........... 0.000000
      Maximum Trials .................... 40
      Quality Analysis .................. None
      Specific Gravity .................. 1.00
      Relative Kinematic Viscosity ...... 1.00
      Relative Chemical Diffusivity ..... 1.00
      Demand Multiplier ................. 1.00
      Total Duration .................... 1440.00 min
      Reporting Criteria:
         No Nodes
         No Links
   
  Analysis begun Mon Oct 29 21:07:25 2018

  Analysis ended Mon Oct 29 21:07:25 2018
