  Page 1                                    Thu Jan  3 20:13:33 2019

  ******************************************************************
  *                           E P A N E T                          *
  *                   Hydraulic and Water Quality                  *
  *                   Analysis for Pipe Networks                   *
  *                         Version 2.1                            *
  ******************************************************************
  
  Analysis begun Thu Jan  3 20:13:33 2019

  Analysis ended Thu Jan  3 20:13:33 2019
